@<TRIPOS>MOLECULE
HA1
   16    16     1     0     0
SMALL
RESP Charge
 
 
@<TRIPOS>ATOM
      1 N          27.2840   27.4970   24.7070 N         1 HA1     -0.866680
      2 H          26.3460   27.3890   24.3480 H         1 HA1      0.451062
      3 CA         27.4610   27.6530   26.1460 CT        1 HA1      0.113190
      4 HA         28.2670   28.3660   26.3170 H1        1 HA1      0.315336
      5 CB         26.2020   28.1530   26.8670 CT        1 HA1     -0.136019
      6 HB2        25.3280   27.5690   26.5780 HC        1 HA1     -0.031012
      7 CG         25.9070   29.5890   26.4870 CC        1 HA1      0.088557
      8 CD2        26.7490   30.5690   26.3560 CW        1 HA1      0.054039
      9 HD2        27.8310   30.6500   26.4630 H4        1 HA1     -0.135964
     10 NE2        26.0230   31.6530   26.0170 Y3        1 HA1     -0.031902
     11 CE1        24.7920   31.3880   25.9440 CR        1 HA1     -0.025821
     12 ND1        24.6920   30.1080   26.2310 Y5        1 HA1     -0.360072
     13 HE1        23.9370   32.0200   25.7030 H5        1 HA1      0.075566
     14 HB3        26.3090   28.1340   27.9520 HC        1 HA1     -0.031012
     15 C          27.8170   26.3440   26.8630 C         1 HA1      0.713640
     16 O          27.1600   25.3090   26.5710 O         1 HA1     -0.569300
@<TRIPOS>BOND
     1    1    2 1
     2    1    3 1
     3    3    4 1
     4    3    5 1
     5    3   15 1
     6    5    6 1
     7    5    7 1
     8    5   14 1
     9    7    8 1
    10    7   12 1
    11    8    9 1
    12    8   10 1
    13   10   11 1
    14   11   12 1
    15   11   13 1
    16   15   16 1
@<TRIPOS>SUBSTRUCTURE
     1 HA1         1 TEMP              0 ****  ****    0 ROOT
