@<TRIPOS>MOLECULE
HD1
   17    17     1     0     0
SMALL
RESP Charge
 
 
@<TRIPOS>ATOM
      1 N          31.7410   30.0750   27.1110 N         1 HD1     -0.415700
      2 H          32.5850   30.5580   27.3860 H         1 HD1      0.325187
      3 CA         31.7530   29.2960   25.8280 CX        1 HD1      0.018800
      4 HA         30.8680   28.6600   25.7900 H1        1 HD1      0.208019
      5 CB         31.7500   30.2080   24.6070 CT        1 HD1      0.131499
      6 HB2        32.5150   30.9790   24.7030 HC        1 HD1      0.025230
      7 HB3        31.9230   29.6380   23.6950 HC        1 HD1      0.025230
      8 CG         30.4430   30.9220   24.4250 CC        1 HD1     -0.003541
      9 ND1        29.5110   30.4300   23.5540 NA        1 HD1     -0.114055
     10 HD1        29.6100   29.6000   22.9880 H         1 HD1      0.303284
     11 CE1        28.4550   31.2350   23.5820 CR        1 HD1     -0.010009
     12 HE1        27.6020   30.9880   22.9510 H5        1 HD1      0.166241
     13 NE2        28.6540   32.2490   24.4290 Y2        1 HD1     -0.278615
     14 CD2        29.8780   32.0690   24.9740 CV        1 HD1     -0.069765
     15 HD2        30.2550   32.7740   25.7140 H4        1 HD1      0.145756
     16 C          32.9250   28.3360   26.1460 C         1 HD1      0.597300
     17 O          34.0350   28.7820   26.4510 O         1 HD1     -0.567900
@<TRIPOS>BOND
     1    1    2 1
     2    1    3 1
     3    3    4 1
     4    3    5 1
     5    3   16 1
     6    5    6 1
     7    5    7 1
     8    5    8 1
     9    8    9 1
    10    8   14 1
    11    9   10 1
    12    9   11 1
    13   11   12 1
    14   11   13 1
    15   13   14 1
    16   14   15 1
    17   16   17 1
@<TRIPOS>SUBSTRUCTURE
     1 HD1         1 TEMP              0 ****  ****    0 ROOT
