@<TRIPOS>MOLECULE
HD2
   17    17     1     0     0
SMALL
RESP Charge
 
 
@<TRIPOS>ATOM
      1 N          28.2090   39.5230   25.0460 N         1 HD2     -0.415700
      2 H          27.6170   39.3460   25.8450 H         1 HD2      0.321723
      3 CA         27.5620   39.6310   23.6860 CX        1 HD2      0.018800
      4 HA         28.2800   39.4700   22.8820 H1        1 HD2      0.098670
      5 CB         26.4840   38.5110   23.6220 CT        1 HD2      0.428860
      6 HB2        25.7640   38.7070   24.4160 HC        1 HD2     -0.086998
      7 HB3        25.9890   38.5960   22.6550 HC        1 HD2     -0.086998
      8 CG         26.8980   37.0920   23.7640 CC        1 HD2     -0.145962
      9 ND1        26.7490   36.1920   22.7410 NA        1 HD2     -0.231658
     10 HD1        26.3440   36.4330   21.8470 H         1 HD2      0.366578
     11 CE1        27.1750   35.0740   23.0710 CR        1 HD2      0.025249
     12 HE1        27.1300   34.2670   22.3400 H5        1 HD2      0.149513
     13 NE2        27.6450   35.0940   24.3770 Y4        1 HD2     -0.205502
     14 CD2        27.4580   36.3230   24.7570 CV        1 HD2      0.032899
     15 HD2        27.7390   36.6310   25.7640 H4        1 HD2      0.021121
     16 C          26.9830   40.9730   23.3280 C         1 HD2      0.597300
     17 O          26.9010   41.9040   24.1010 O         1 HD2     -0.567900
@<TRIPOS>BOND
     1    1    2 1
     2    1    3 1
     3    3    4 1
     4    3    5 1
     5    3   16 1
     6    5    6 1
     7    5    7 1
     8    5    8 1
     9    8    9 1
    10    8   14 1
    11    9   10 1
    12    9   11 1
    13   11   12 1
    14   11   13 1
    15   13   14 1
    16   14   15 1
    17   16   17 1
@<TRIPOS>SUBSTRUCTURE
     1 HD2         1 TEMP              0 ****  ****    0 ROOT
