@<TRIPOS>MOLECULE
HE2
   17    17     1     0     0
SMALL
RESP Charge
 
 
@<TRIPOS>ATOM
      1 N          18.9660   26.7360   27.7780 N         1 HE2     -0.415700
      2 H          18.4860   26.7840   26.8910 H         1 HE2      0.364351
      3 CA         19.2910   27.9520   28.4320 CX        1 HE2     -0.058100
      4 HA         20.3610   27.9550   28.6410 H1        1 HE2     -0.080148
      5 CB         18.9450   29.2220   27.5840 CT        1 HE2      0.180996
      6 HB2        19.0020   28.9760   26.5230 HC        1 HE2     -0.009816
      7 HB3        17.9610   29.6350   27.8080 HC        1 HE2     -0.009816
      8 CG         19.9490   30.3330   27.8280 CC        1 HE2     -0.054824
      9 ND1        21.2610   30.3940   28.2170 Y6        1 HE2      0.354971
     10 CE1        21.6690   31.6890   28.2470 CR        1 HE2     -0.070956
     11 HE1        22.6820   31.9610   28.5440 H5        1 HE2      0.097900
     12 NE2        20.6800   32.4100   27.8830 NA        1 HE2     -0.181516
     13 HE2        20.6910   33.4180   27.8090 H         1 HE2      0.341661
     14 CD2        19.5860   31.6030   27.6040 CW        1 HE2     -0.275722
     15 HD2        18.6510   32.0500   27.2680 H4        1 HE2      0.216821
     16 C          18.4890   28.1300   29.7120 C         1 HE2      0.597300
     17 O          17.6290   27.2990   29.9620 O         1 HE2     -0.567900
@<TRIPOS>BOND
     1    1    2 1
     2    1    3 1
     3    3    4 1
     4    3    5 1
     5    3   16 1
     6    5    6 1
     7    5    7 1
     8    5    8 1
     9    8    9 1
    10    8   14 1
    11    9   10 1
    12   10   11 1
    13   10   12 1
    14   12   13 1
    15   12   14 1
    16   14   15 1
    17   16   17 1
@<TRIPOS>SUBSTRUCTURE
     1 HE2         1 TEMP              0 ****  ****    0 ROOT
